Version 4
SHEET 1 880 680
WIRE 96 64 48 64
WIRE 224 64 176 64
WIRE 48 112 48 64
WIRE 48 112 16 112
WIRE 48 144 48 112
WIRE 96 144 48 144
WIRE 224 160 224 64
WIRE 224 160 160 160
WIRE 320 160 224 160
WIRE 96 176 48 176
WIRE 320 192 320 160
WIRE -64 224 -64 112
WIRE 48 224 48 176
WIRE 48 224 16 224
WIRE -64 352 -64 224
WIRE 240 400 96 400
WIRE 336 400 240 400
WIRE 432 400 336 400
WIRE 432 432 432 400
WIRE 240 448 240 400
WIRE 48 480 48 224
WIRE 96 480 48 480
WIRE 176 560 96 560
WIRE 240 560 240 512
WIRE 240 560 176 560
WIRE 432 560 432 512
WIRE 432 560 240 560
WIRE 176 592 176 560
FLAG 128 192 0
FLAG 128 128 Vcc
FLAG 176 592 0
FLAG 336 400 Vcc
FLAG -64 352 0
FLAG 320 272 0
SYMBOL res 32 96 R90
WINDOW 0 0 56 VBottom 2
WINDOW 3 32 56 VTop 2
SYMATTR InstName R1
SYMATTR Value 100
SYMBOL res 32 208 R90
WINDOW 0 0 56 VBottom 2
WINDOW 3 32 56 VTop 2
SYMATTR InstName R2
SYMATTR Value 100
SYMBOL res 192 48 R90
WINDOW 0 0 56 VBottom 2
WINDOW 3 32 56 VTop 2
SYMATTR InstName R3
SYMATTR Value 10k
SYMBOL OpAmps\\LT6231 128 160 R0
SYMATTR InstName U1
SYMBOL res 80 384 R0
SYMATTR InstName R4
SYMATTR Value 4k
SYMBOL res 80 464 R0
SYMATTR InstName R5
SYMATTR Value 4k
SYMBOL cap 224 448 R0
SYMATTR InstName C1
SYMATTR Value 100n
SYMBOL voltage 432 416 R0
WINDOW 123 0 0 Left 0
WINDOW 39 24 124 Left 2
SYMATTR SpiceLine Rser=10
SYMATTR InstName V1
SYMATTR Value 5
SYMBOL res 304 176 R0
SYMATTR InstName R6
SYMATTR Value 5100
